# File generated by Flopy version 3.4.1 on 08/06/2024 at 10:46:19.
BEGIN options
  BOUNDNAMES
  PRINT_INPUT
  PRINT_FLOWS
  SAVE_FLOWS
END options

BEGIN dimensions
  MAXBOUND  1
END dimensions

BEGIN period  1
  1 8 8    -600.00000000  well_00
END period  1

