# File generated by Flopy version 3.4.1 on 08/06/2024 at 10:46:19.
BEGIN griddata
  strt
    CONSTANT       0.00000000
END griddata

