# File generated by Flopy version 3.4.1 on 08/06/2024 at 10:46:19.
BEGIN options
  BUDGET  FILEOUT  gwf_well_00.cbb
  HEAD  FILEOUT  gwf_well_00.hds
END options

BEGIN period  1
  SAVE  HEAD  ALL
  SAVE  BUDGET  ALL
  PRINT  HEAD  LAST
END period  1

