# File generated by Flopy version 3.4.1 on 08/06/2024 at 10:46:19.
BEGIN options
  SAVE_FLOWS
END options

BEGIN griddata
  icelltype
    CONSTANT  1
  k
    CONSTANT       1.00000000
END griddata

