# File generated by Flopy version 3.4.1 on 10/24/2023 at 09:44:35.
BEGIN options
  BOUNDNAMES
  PRINT_INPUT
  PRINT_FLOWS
  SAVE_FLOWS
END options

BEGIN dimensions
  MAXBOUND  1
END dimensions

BEGIN period  1
  1 8 8    -700.00000000  well_00
END period  1

