# File generated by Flopy version 3.4.1 on 10/12/2023 at 08:44:27.
BEGIN options
END options

BEGIN dimensions
  NLAY  1
  NROW  15
  NCOL  15
END dimensions

BEGIN griddata
  delr
    CONSTANT    1000.00000000
  delc
    CONSTANT    1000.00000000
  top
    CONSTANT       0.00000000
  botm
    CONSTANT    -100.00000000
END griddata

