# File generated by Flopy version 3.4.1 on 10/24/2023 at 12:11:37.
BEGIN options
  BUDGET  FILEOUT  gwf_well_00.cbb
  HEAD  FILEOUT  gwf_well_00.hds
END options

BEGIN period  1
  SAVE  HEAD  ALL
  SAVE  BUDGET  ALL
  PRINT  HEAD  LAST
END period  1

