# File generated by Flopy version 3.4.1 on 10/12/2023 at 08:44:27.
BEGIN options
  SAVE_FLOWS
END options

BEGIN dimensions
  MAXBOUND  15
END dimensions

BEGIN period  1
  1 1 1       0.00000000
  1 1 2       0.00000000
  1 1 3       0.00000000
  1 1 4       0.00000000
  1 1 5       0.00000000
  1 1 6       0.00000000
  1 1 7       0.00000000
  1 1 8       0.00000000
  1 1 9       0.00000000
  1 1 10       0.00000000
  1 1 11       0.00000000
  1 1 12       0.00000000
  1 1 13       0.00000000
  1 1 14       0.00000000
  1 1 15       0.00000000
END period  1

