# File generated by Flopy version 3.4.1 on 10/24/2023 at 09:44:35.
BEGIN options
END options

BEGIN packages
  dis6  gwf_well_00.dis  dis
  ic6  gwf_well_00.ic  ic
  npf6  gwf_well_00.npf  npf
  sto6  gwf_well_00.sto  sto
  wel6  gwf_well_00.wel  wel
  chd6  gwf_well_00.chd  chd
  oc6  gwf_well_00.oc  oc
END packages

