# File generated by Flopy version 3.4.1 on 10/24/2023 at 09:44:35.
BEGIN options
  SAVE_FLOWS
END options

BEGIN griddata
  icelltype
    CONSTANT  1
  k
    CONSTANT       1.00000000
END griddata

