# File generated by Flopy version 3.4.1 on 10/12/2023 at 12:33:32.
BEGIN options
END options

BEGIN packages
  OC6  gwf_well_00.oc  oc
  CHD6  gwf_well_00.chd  chd
  STO6  gwf_well_00.sto  sto
  NPF6  gwf_well_00.npf  npf
  IC6  gwf_well_00.ic  ic
  DIS6  gwf_well_00.dis  dis
  WEL6  gwf_well_00.wel  wel
END packages

