# File generated by Flopy version 3.4.1 on 10/12/2023 at 08:44:27.
BEGIN options
  SAVE_FLOWS
END options

BEGIN griddata
  iconvert
    CONSTANT  0
  ss
    CONSTANT  2.00000000E-06
  sy
    CONSTANT       0.20000000
END griddata

BEGIN period  1
  TRANSIENT
END period  1

