# File generated by Flopy version 3.4.1 on 10/12/2023 at 08:44:27.
BEGIN options
END options

BEGIN packages
  DIS6  gwf_well_00.dis  dis
  IC6  gwf_well_00.ic  ic
  NPF6  gwf_well_00.npf  npf
  STO6  gwf_well_00.sto  sto
  WEL6  gwf_well_00.wel  wel
  CHD6  gwf_well_00.chd  chd
  OC6  gwf_well_00.oc  oc
END packages

