# File generated by Flopy version 3.4.1 on 10/24/2023 at 09:44:35.
BEGIN options
  BUDGET  FILEOUT  gwf_well_00.cbb
  HEAD  FILEOUT  gwf_well_00.hds
END options

BEGIN period  1
  SAVE  head  all
  SAVE  budget  all
  PRINT  head  last
END period  1

