# File generated by Flopy version 3.4.1 on 10/12/2023 at 12:33:32.
BEGIN options
END options

BEGIN timing
  TDIS6  well_00.tdis
END timing

BEGIN models
  gwf6  gwf_well_00.nam  gwf_well_00
END models

BEGIN exchanges
END exchanges

BEGIN solutiongroup  1
  ims6  well_00.ims  gwf_well_00
END solutiongroup  1

