# File generated by Flopy version 3.4.1 on 10/12/2023 at 12:33:32.
BEGIN options
  COMPLEXITY  simple
END options

