# File generated by Flopy version 3.4.1 on 10/24/2023 at 12:11:37.
BEGIN options
  COMPLEXITY  simple
END options

