# File generated by Flopy version 3.4.1 on 10/24/2023 at 09:44:35.
BEGIN options
  COMPLEXITY  simple
END options

