# File generated by Flopy version 3.4.1 on 10/12/2023 at 12:33:32.
BEGIN options
  TIME_UNITS  days
END options

BEGIN dimensions
  NPER  1
END dimensions

BEGIN perioddata
    3650.00000000  19       1.50000000
END perioddata

