# Name File for MODFLOW created on 13/09/2023 by ModelMuse Version 5.1.1.0
LIST             11 ..\..\output\output.ISD_test\ISD_test.lst REPLACE
DATA(BINARY)      9 ..\..\output\output.ISD_test\ISD_test.cbc REPLACE
DIS              12 ..\..\model\model.ISD_test\ISD_test.dis OLD
BAS6             13 ..\..\model\model.ISD_test\ISD_test.bas OLD
OC               39 ..\..\model\model.ISD_test\ISD_test.oc OLD
DATA             37 ..\..\output\output.ISD_test\ISD_test.fhd REPLACE
DATA             38 ..\..\output\output.ISD_test\ISD_test.fdn REPLACE
PCG              18 ..\..\model\model.ISD_test\ISD_test.pcg OLD
LPF              14 ..\..\model\model.ISD_test\ISD_test.lpf OLD
CHD              17 ..\..\model\model.ISD_test\ISD_test.chd OLD
WEL              20 ..\..\model\model.ISD_test\ISD_test.wel OLD
