# Name File for MODFLOW created on 13/09/2023 by ModelMuse Version 5.1.1.0
LIST             11 ISD_test.lst REPLACE
DATA(BINARY)      9 ISD_test.cbc REPLACE
DIS              12 ISD_test.dis OLD
BAS6             13 ISD_test.bas OLD
OC               39 ISD_test.oc OLD
DATA             37 ISD_test.fhd REPLACE
DATA             38 ISD_test.fdn REPLACE
PCG              18 ISD_test.pcg OLD
LPF              14 ISD_test.lpf OLD
CHD              17 ISD_test.chd OLD
WEL              20 ISD_test.wel OLD
